<?xml version="1.0" encoding="UTF-8"?>

<!-- generated on 2023-02-06 12:26:34 by Eclipse SUMO netedit Version 1.15.0
<configuration xmlns:xsi="http://www.w3.org/2001/XMLSchema-instance" xsi:noNamespaceSchemaLocation="http://sumo.dlr.de/xsd/netconvertConfiguration.xsd">

    <input>
        <sumo-net-file value="D:\sumo\competition\net.xml\highway_2.net.xml"/>
    </input>

    <output>
        <output-file value="D:\sumo\competition\net.xml\highway_2.net.xml"/>
    </output>

    <processing>
        <geometry.min-radius.fix.railways value="false"/>
        <geometry.max-grade.fix value="false"/>
        <offset.disable-normalization value="true"/>
        <lefthand value="0"/>
    </processing>

    <junctions>
        <no-turnarounds value="true"/>
        <junctions.corner-detail value="5"/>
        <junctions.limit-turn-speed value="5.50"/>
        <rectangular-lane-cut value="0"/>
    </junctions>

    <pedestrian>
        <walkingareas value="0"/>
    </pedestrian>

</configuration>
-->

<net version="1.9" junctionCornerDetail="5" limitTurnSpeed="5.50" xmlns:xsi="http://www.w3.org/2001/XMLSchema-instance" xsi:noNamespaceSchemaLocation="http://sumo.dlr.de/xsd/net_file.xsd">

    <location netOffset="0.00,0.00" convBoundary="-367.65,34.95,139.07,99.14" origBoundary="-10000000000.00,-10000000000.00,10000000000.00,10000000000.00" projParameter="!"/>

    <edge id=":J0_0" function="internal">
        <lane id=":J0_0_0" index="0" disallow="pedestrian" speed="13.89" length="0.29" width="2.70" shape="14.79,58.80 14.52,58.80"/>
        <lane id=":J0_0_1" index="1" disallow="pedestrian" speed="13.89" length="0.29" width="2.70" shape="14.79,56.10 14.50,56.10"/>
        <lane id=":J0_0_2" index="2" disallow="pedestrian" speed="13.89" length="0.29" width="2.70" shape="14.78,53.40 14.49,53.40"/>
    </edge>
    <edge id=":J0_3" function="internal">
        <lane id=":J0_3_0" index="0" speed="13.89" length="0.32" width="2.70" shape="14.44,45.30 14.77,45.30"/>
        <lane id=":J0_3_1" index="1" speed="13.89" length="0.32" width="2.70" shape="14.45,48.00 14.77,48.00"/>
        <lane id=":J0_3_2" index="2" speed="13.89" length="0.32" width="2.70" shape="14.47,50.70 14.78,50.70"/>
    </edge>
    <edge id=":J1_0" function="internal">
        <lane id=":J1_0_0" index="0" disallow="pedestrian" speed="7.17" length="11.28" width="2.70" shape="84.11,58.68 80.42,59.02 77.78,60.04 76.20,61.74 75.66,64.11"/>
    </edge>
    <edge id=":J1_1" function="internal">
        <lane id=":J1_1_0" index="0" disallow="pedestrian" speed="13.89" length="19.20" width="2.70" shape="84.11,58.68 64.91,58.71"/>
        <lane id=":J1_1_1" index="1" disallow="pedestrian" speed="13.89" length="19.20" width="2.70" shape="84.10,55.98 64.91,56.01"/>
        <lane id=":J1_1_2" index="2" disallow="pedestrian" speed="13.89" length="19.20" width="2.70" shape="84.10,53.28 64.90,53.31"/>
    </edge>
    <edge id=":J1_4" function="internal">
        <lane id=":J1_4_0" index="0" disallow="pedestrian" speed="5.34" length="5.77" width="2.70" shape="80.72,38.64 80.97,40.32 81.62,41.52 82.66,42.24 84.09,42.48"/>
    </edge>
    <edge id=":J1_5" function="internal">
        <lane id=":J1_5_0" index="0" disallow="pedestrian" speed="31.95" length="25.53" width="2.70" shape="78.02,38.73 77.83,46.66 77.01,52.44 76.11,57.71 75.66,64.11"/>
    </edge>
    <edge id=":J1_6" function="internal">
        <lane id=":J1_6_0" index="0" disallow="pedestrian" speed="9.35" length="20.36" width="2.70" shape="75.32,38.81 74.84,45.15 72.94,49.67 69.63,52.39 64.90,53.31"/>
    </edge>
    <edge id=":J1_7" function="internal">
        <lane id=":J1_7_0" index="0" disallow="pedestrian" speed="13.89" length="19.39" width="2.70" shape="64.89,45.21 70.61,44.78 74.49,43.84 78.36,42.91 84.09,42.48"/>
        <lane id=":J1_7_1" index="1" disallow="pedestrian" speed="13.89" length="19.39" width="2.70" shape="64.89,47.91 70.62,47.48 74.49,46.54 78.36,45.61 84.09,45.18"/>
        <lane id=":J1_7_2" index="2" disallow="pedestrian" speed="13.89" length="19.39" width="2.70" shape="64.90,50.61 70.62,50.18 74.50,49.24 78.37,48.31 84.09,47.88"/>
        <lane id=":J1_7_3" index="3" disallow="pedestrian" speed="13.89" length="19.39" width="2.70" shape="64.90,50.61 84.10,50.58"/>
    </edge>
    <edge id=":J1_11" function="internal">
        <lane id=":J1_11_0" index="0" disallow="pedestrian" speed="9.26" length="2.65" width="2.70" shape="64.90,50.61 67.50,51.07"/>
    </edge>
    <edge id=":J1_15" function="internal">
        <lane id=":J1_15_0" index="0" disallow="pedestrian" speed="9.26" length="17.00" width="2.70" shape="67.50,51.07 69.63,51.44 73.01,53.97 75.01,58.19 75.66,64.11"/>
    </edge>
    <edge id=":J1_12" function="internal">
        <lane id=":J1_12_0" index="0" disallow="pedestrian" speed="6.31" length="8.65" width="2.70" shape="70.26,64.07 69.93,61.72 68.94,60.04 67.26,59.04 64.91,58.71"/>
    </edge>
    <edge id=":J1_13" function="internal">
        <lane id=":J1_13_0" index="0" disallow="pedestrian" speed="10.30" length="24.21" width="2.70" shape="70.26,64.07 71.16,56.99 73.76,51.94 78.08,48.90 84.09,47.88"/>
        <lane id=":J1_13_1" index="1" disallow="pedestrian" speed="9.37" length="19.88" width="2.70" shape="72.96,64.09 73.68,58.18 75.78,53.96 79.25,51.43 84.10,50.58"/>
    </edge>
    <edge id=":J15_0" function="internal">
        <lane id=":J15_0_0" index="0" disallow="pedestrian" speed="13.89" length="29.54" width="2.70" shape="-298.81,56.30 -328.36,56.55"/>
        <lane id=":J15_0_1" index="1" disallow="pedestrian" speed="13.89" length="29.54" width="2.70" shape="-298.85,53.60 -328.38,53.85"/>
    </edge>
    <edge id=":J15_2" function="internal">
        <lane id=":J15_2_0" index="0" disallow="pedestrian" speed="13.89" length="29.50" width="2.70" shape="-328.47,45.75 -298.99,45.51"/>
        <lane id=":J15_2_1" index="1" disallow="pedestrian" speed="13.89" length="29.50" width="2.70" shape="-328.44,48.45 -298.94,48.21"/>
        <lane id=":J15_2_2" index="2" disallow="pedestrian" speed="13.89" length="29.50" width="2.70" shape="-328.41,51.15 -298.90,50.91"/>
    </edge>
    <edge id=":J15_5" function="internal">
        <lane id=":J15_5_0" index="0" disallow="pedestrian" speed="6.03" length="14.73" width="2.70" shape="-327.62,61.91 -322.88,59.51 -321.43,57.82 -323.25,56.83 -328.36,56.55"/>
    </edge>
    <edge id=":J15_6" function="internal">
        <lane id=":J15_6_0" index="0" disallow="pedestrian" speed="13.89" length="32.84" width="2.70" shape="-327.62,61.91 -319.66,56.88 -314.33,51.58 -308.48,47.35 -298.99,45.51"/>
        <lane id=":J15_6_1" index="1" disallow="pedestrian" speed="13.89" length="32.84" width="2.70" shape="-326.55,64.39 -318.68,59.39 -313.58,54.17 -308.07,50.01 -298.94,48.21"/>
        <lane id=":J15_6_2" index="2" disallow="pedestrian" speed="13.89" length="32.84" width="2.70" shape="-325.48,66.87 -317.70,61.91 -312.84,56.76 -307.65,52.67 -298.90,50.91"/>
    </edge>
    <edge id=":J17_0" function="internal">
        <lane id=":J17_0_0" index="0" disallow="pedestrian" speed="8.46" length="15.64" width="2.70" shape="70.12,29.50 74.65,30.10 77.92,31.79 79.95,34.57 80.71,38.44"/>
        <lane id=":J17_0_1" index="1" disallow="pedestrian" speed="7.30" length="11.42" width="2.70" shape="70.09,32.20 73.48,32.63 75.93,33.82 77.44,35.79 78.01,38.53"/>
        <lane id=":J17_0_2" index="2" disallow="pedestrian" speed="5.92" length="7.21" width="2.70" shape="70.07,34.90 72.32,35.15 73.94,35.86 74.94,37.01 75.31,38.61"/>
    </edge>
    <edge id=":J18_0" function="internal">
        <lane id=":J18_0_0" index="0" disallow="pedestrian" speed="13.89" length="8.37" width="2.70" shape="10.99,31.65 13.43,31.23 15.00,30.30 16.57,29.39 19.01,28.99"/>
        <lane id=":J18_0_1" index="1" disallow="pedestrian" speed="13.89" length="8.37" width="2.70" shape="10.99,34.35 13.42,33.93 14.98,33.00 16.55,32.09 18.98,31.69"/>
        <lane id=":J18_0_2" index="2" disallow="pedestrian" speed="13.89" length="8.37" width="2.70" shape="10.99,34.35 18.95,34.39"/>
    </edge>
    <edge id=":J19_0" function="internal">
        <lane id=":J19_0_0" index="0" disallow="pedestrian" speed="13.89" length="0.30" width="2.70" shape="-5.43,31.65 -5.14,31.65"/>
        <lane id=":J19_0_1" index="1" disallow="pedestrian" speed="13.89" length="0.30" width="2.70" shape="-5.44,34.35 -5.14,34.35"/>
    </edge>
    <edge id=":J20_0" function="internal">
        <lane id=":J20_0_0" index="0" disallow="pedestrian" speed="13.89" length="0.30" width="2.70" shape="-42.95,31.55 -42.65,31.55"/>
        <lane id=":J20_0_1" index="1" disallow="pedestrian" speed="13.89" length="0.30" width="2.70" shape="-42.97,34.25 -42.66,34.25"/>
    </edge>
    <edge id=":J21_0" function="internal">
        <lane id=":J21_0_0" index="0" disallow="pedestrian" speed="8.44" length="16.20" width="2.70" shape="-163.24,42.78 -162.76,37.58 -161.26,33.86 -158.74,31.65 -155.21,30.92"/>
        <lane id=":J21_0_1" index="1" disallow="pedestrian" speed="7.29" length="11.85" width="2.70" shape="-160.54,42.77 -160.23,38.75 -159.23,35.89 -157.57,34.18 -155.22,33.62"/>
    </edge>
    <edge id=":J22_0" function="internal">
        <lane id=":J22_0_0" index="0" disallow="pedestrian" speed="13.89" length="8.44" width="2.70" shape="-169.30,57.78 -171.73,58.26 -173.27,59.23 -174.81,60.19 -177.24,60.67"/>
        <lane id=":J22_0_1" index="1" disallow="pedestrian" speed="13.89" length="8.44" width="2.70" shape="-169.37,55.08 -171.80,55.56 -173.34,56.53 -174.88,57.49 -177.31,57.97"/>
        <lane id=":J22_0_2" index="2" disallow="pedestrian" speed="13.89" length="8.44" width="2.70" shape="-169.44,52.38 -171.87,52.86 -173.40,53.83 -174.94,54.79 -177.37,55.27"/>
        <lane id=":J22_0_3" index="3" disallow="pedestrian" speed="13.89" length="8.44" width="2.70" shape="-169.44,52.38 -177.44,52.58"/>
    </edge>
    <edge id=":J22_4" function="internal">
        <lane id=":J22_4_0" index="0" disallow="pedestrian" speed="13.89" length="7.99" width="2.70" shape="-177.63,44.48 -169.64,44.28"/>
        <lane id=":J22_4_1" index="1" disallow="pedestrian" speed="13.89" length="7.99" width="2.70" shape="-177.57,47.18 -169.57,46.98"/>
        <lane id=":J22_4_2" index="2" disallow="pedestrian" speed="13.89" length="7.99" width="2.70" shape="-177.50,49.88 -169.51,49.68"/>
    </edge>
    <edge id=":J23_0" function="internal">
        <lane id=":J23_0_0" index="0" disallow="pedestrian" speed="13.89" length="0.64" width="2.70" shape="-207.22,61.39 -207.98,61.40"/>
        <lane id=":J23_0_1" index="1" disallow="pedestrian" speed="13.89" length="0.64" width="2.70" shape="-207.28,58.69 -207.96,58.70"/>
        <lane id=":J23_0_2" index="2" disallow="pedestrian" speed="13.89" length="0.64" width="2.70" shape="-207.35,55.99 -207.94,56.00"/>
        <lane id=":J23_0_3" index="3" disallow="pedestrian" speed="13.89" length="0.64" width="2.70" shape="-207.41,53.29 -207.92,53.30"/>
    </edge>
    <edge id=":J23_4" function="internal">
        <lane id=":J23_4_0" index="0" disallow="pedestrian" speed="13.89" length="0.34" width="2.70" shape="-207.87,45.20 -207.60,45.20"/>
        <lane id=":J23_4_1" index="1" disallow="pedestrian" speed="13.89" length="0.34" width="2.70" shape="-207.88,47.90 -207.54,47.89"/>
        <lane id=":J23_4_2" index="2" disallow="pedestrian" speed="13.89" length="0.34" width="2.70" shape="-207.90,50.60 -207.48,50.59"/>
    </edge>
    <edge id=":J3_0" function="internal">
        <lane id=":J3_0_0" index="0" disallow="pedestrian" speed="13.89" length="10.75" width="2.70" shape="-264.35,60.99 -267.43,61.25 -269.43,62.05 -271.31,63.35 -274.01,65.09"/>
    </edge>
    <edge id=":J3_1" function="internal">
        <lane id=":J3_1_0" index="0" disallow="pedestrian" speed="13.89" length="8.40" width="2.70" shape="-264.33,58.29 -266.72,57.89 -268.27,57.04 -269.82,56.21 -272.21,55.86"/>
        <lane id=":J3_1_1" index="1" disallow="pedestrian" speed="13.89" length="8.40" width="2.70" shape="-264.31,55.59 -266.72,55.19 -268.28,54.34 -269.84,53.51 -272.25,53.16"/>
    </edge>
    <edge id=":J3_3" function="internal">
        <lane id=":J3_3_0" index="0" disallow="pedestrian" speed="13.89" length="8.10" width="2.70" shape="-272.39,45.06 -264.23,44.79"/>
        <lane id=":J3_3_1" index="1" disallow="pedestrian" speed="13.89" length="8.10" width="2.70" shape="-272.34,47.76 -264.25,47.49"/>
        <lane id=":J3_3_2" index="2" disallow="pedestrian" speed="13.89" length="8.10" width="2.70" shape="-272.30,50.46 -264.27,50.19"/>
    </edge>
    <edge id=":J3_6" function="internal">
        <lane id=":J3_6_0" index="0" disallow="pedestrian" speed="6.56" length="1.80" width="2.70" shape="-272.30,50.46 -270.64,51.15"/>
    </edge>
    <edge id=":J3_7" function="internal">
        <lane id=":J3_7_0" index="0" disallow="pedestrian" speed="6.56" length="15.26" width="2.70" shape="-270.64,51.15 -268.95,51.84 -268.89,55.26 -271.30,59.35 -275.34,62.74"/>
    </edge>
    <edge id=":J5_0" function="internal">
        <lane id=":J5_0_0" index="0" disallow="pedestrian" speed="13.89" length="0.33" width="2.70" shape="-4.76,58.92 -5.12,58.92"/>
        <lane id=":J5_0_1" index="1" disallow="pedestrian" speed="13.89" length="0.33" width="2.70" shape="-4.78,56.22 -5.11,56.22"/>
        <lane id=":J5_0_2" index="2" disallow="pedestrian" speed="13.89" length="0.33" width="2.70" shape="-4.79,53.52 -5.09,53.52"/>
    </edge>
    <edge id=":J5_3" function="internal">
        <lane id=":J5_3_0" index="0" speed="13.89" length="0.23" width="2.70" shape="-5.04,45.42 -4.84,45.42"/>
        <lane id=":J5_3_1" index="1" speed="13.89" length="0.23" width="2.70" shape="-5.05,48.12 -4.82,48.12"/>
        <lane id=":J5_3_2" index="2" speed="13.89" length="0.23" width="2.70" shape="-5.07,50.82 -4.81,50.82"/>
    </edge>
    <edge id=":J6_0" function="internal">
        <lane id=":J6_0_0" index="0" speed="13.89" length="8.13" width="2.70" shape="-279.13,67.98 -281.03,69.53 -281.96,71.09 -282.91,72.60 -284.89,74.01"/>
        <lane id=":J6_0_1" index="1" speed="13.89" length="8.13" width="2.70" shape="-280.46,65.63 -282.31,67.16 -283.20,68.70 -284.12,70.19 -286.05,71.57"/>
        <lane id=":J6_0_2" index="2" speed="13.89" length="8.13" width="2.70" shape="-280.46,65.63 -287.20,69.13"/>
    </edge>
    <edge id=":J7_0" function="internal">
        <lane id=":J7_0_0" index="0" disallow="pedestrian" speed="13.89" length="0.31" width="2.70" shape="-41.60,58.69 -41.93,58.69"/>
        <lane id=":J7_0_1" index="1" disallow="pedestrian" speed="13.89" length="0.31" width="2.70" shape="-41.59,55.99 -41.90,55.99"/>
        <lane id=":J7_0_2" index="2" disallow="pedestrian" speed="13.89" length="0.31" width="2.70" shape="-41.57,53.29 -41.87,53.29"/>
    </edge>
    <edge id=":J7_3" function="internal">
        <lane id=":J7_3_0" index="0" speed="13.89" length="0.28" width="2.70" shape="-41.79,45.19 -41.52,45.19"/>
        <lane id=":J7_3_1" index="1" speed="13.89" length="0.28" width="2.70" shape="-41.82,47.89 -41.54,47.89"/>
        <lane id=":J7_3_2" index="2" speed="13.89" length="0.28" width="2.70" shape="-41.84,50.59 -41.55,50.59"/>
    </edge>
    <edge id=":J8_0" function="internal">
        <lane id=":J8_0_0" index="0" disallow="pedestrian" speed="13.89" length="9.07" width="2.70" shape="-157.12,57.54 -166.10,57.70"/>
        <lane id=":J8_0_1" index="1" disallow="pedestrian" speed="13.89" length="9.07" width="2.70" shape="-157.09,54.84 -166.16,55.00"/>
        <lane id=":J8_0_2" index="2" disallow="pedestrian" speed="13.89" length="9.07" width="2.70" shape="-157.07,52.14 -166.23,52.30"/>
    </edge>
    <edge id=":J8_3" function="internal">
        <lane id=":J8_3_0" index="0" disallow="pedestrian" speed="6.98" length="1.34" width="2.70" shape="-157.07,52.14 -158.31,51.66"/>
    </edge>
    <edge id=":J8_8" function="internal">
        <lane id=":J8_8_0" index="0" disallow="pedestrian" speed="6.98" length="9.26" width="2.70" shape="-158.31,51.66 -158.57,51.55 -159.65,49.83 -160.31,46.97 -160.54,42.97"/>
    </edge>
    <edge id=":J8_4" function="internal">
        <lane id=":J8_4_0" index="0" disallow="pedestrian" speed="4.41" length="3.68" width="2.70" shape="-166.44,44.20 -165.04,44.09 -164.04,43.86 -163.44,43.48 -163.24,42.98"/>
    </edge>
    <edge id=":J8_5" function="internal">
        <lane id=":J8_5_0" index="0" disallow="pedestrian" speed="13.89" length="9.36" width="2.70" shape="-166.44,44.20 -156.99,44.04"/>
        <lane id=":J8_5_1" index="1" disallow="pedestrian" speed="13.89" length="9.36" width="2.70" shape="-166.37,46.90 -157.01,46.74"/>
        <lane id=":J8_5_2" index="2" disallow="pedestrian" speed="13.89" length="9.36" width="2.70" shape="-166.30,49.60 -157.04,49.44"/>
    </edge>

    <edge id="-E0" from="J1" to="J0" priority="-1" length="60.00">
        <lane id="-E0_0" index="0" allow="pedestrian" speed="13.89" length="60.00" width="2.00" shape="64.92,61.06 14.80,61.15"/>
        <lane id="-E0_1" index="1" disallow="pedestrian" speed="13.89" length="60.00" width="2.70" shape="64.91,58.71 14.79,58.80"/>
        <lane id="-E0_2" index="2" disallow="pedestrian" speed="13.89" length="60.00" width="2.70" shape="64.91,56.01 14.79,56.10"/>
        <lane id="-E0_3" index="3" disallow="pedestrian" speed="13.89" length="60.00" width="2.70" shape="64.90,53.31 14.78,53.40"/>
    </edge>
    <edge id="-E1" from="J2" to="J1" priority="-1" length="60.00">
        <lane id="-E1_0" index="0" allow="pedestrian" speed="13.89" length="60.00" width="2.00" shape="139.08,60.96 84.11,61.03"/>
        <lane id="-E1_1" index="1" disallow="pedestrian" speed="13.89" length="60.00" width="2.70" shape="139.08,58.61 84.11,58.68"/>
        <lane id="-E1_2" index="2" disallow="pedestrian" speed="13.89" length="60.00" width="2.70" shape="139.08,55.91 84.10,55.98"/>
        <lane id="-E1_3" index="3" disallow="pedestrian" speed="13.89" length="60.00" width="2.70" shape="139.07,53.21 84.10,53.28"/>
    </edge>
    <edge id="-E11" from="J15" to="J3" priority="-1" length="10.00">
        <lane id="-E11_0" index="0" allow="pedestrian" speed="13.89" length="10.00" width="2.00" shape="-299.03,43.16 -272.43,42.71"/>
        <lane id="-E11_1" index="1" disallow="pedestrian" speed="13.89" length="10.00" width="2.70" shape="-298.99,45.51 -272.39,45.06"/>
        <lane id="-E11_2" index="2" disallow="pedestrian" speed="13.89" length="10.00" width="2.70" shape="-298.94,48.21 -272.34,47.76"/>
        <lane id="-E11_3" index="3" disallow="pedestrian" speed="13.89" length="10.00" width="2.70" shape="-298.90,50.91 -272.30,50.46"/>
    </edge>
    <edge id="-E13" from="J24" to="J15" priority="-1" length="60.00">
        <lane id="-E13_0" index="0" allow="pedestrian" speed="13.89" length="60.00" width="2.00" shape="-367.75,43.82 -328.50,43.40"/>
        <lane id="-E13_1" index="1" disallow="pedestrian" speed="13.89" length="60.00" width="2.70" shape="-367.72,46.17 -328.47,45.75"/>
        <lane id="-E13_2" index="2" disallow="pedestrian" speed="13.89" length="60.00" width="2.70" shape="-367.69,48.87 -328.44,48.45"/>
        <lane id="-E13_3" index="3" disallow="pedestrian" speed="13.89" length="60.00" width="2.70" shape="-367.66,51.57 -328.41,51.15"/>
    </edge>
    <edge id="-E2" from="J3" to="J23" priority="-1" length="70.00">
        <lane id="-E2_0" index="0" allow="pedestrian" speed="13.89" length="70.00" width="2.00" shape="-264.21,42.44 -207.85,42.85"/>
        <lane id="-E2_1" index="1" disallow="pedestrian" speed="13.89" length="70.00" width="2.70" shape="-264.23,44.79 -207.87,45.20"/>
        <lane id="-E2_2" index="2" disallow="pedestrian" speed="13.89" length="70.00" width="2.70" shape="-264.25,47.49 -207.88,47.90"/>
        <lane id="-E2_3" index="3" disallow="pedestrian" speed="13.89" length="70.00" width="2.70" shape="-264.27,50.19 -207.90,50.60"/>
    </edge>
    <edge id="-E20" from="J1" to="J16" priority="-1" length="30.00">
        <lane id="-E20_0" index="0" allow="pedestrian" speed="13.89" length="30.00" width="2.00" shape="78.01,64.12 77.79,99.16"/>
        <lane id="-E20_1" index="1" disallow="pedestrian" speed="13.89" length="30.00" width="2.70" shape="75.66,64.11 75.44,99.15"/>
    </edge>
    <edge id="-E27" from="J22" to="J8" priority="-1" length="10.00">
        <lane id="-E27_0" index="0" allow="pedestrian" speed="13.89" length="10.00" width="2.00" shape="-169.70,41.93 -166.50,41.85"/>
        <lane id="-E27_1" index="1" disallow="pedestrian" speed="13.89" length="10.00" width="2.70" shape="-169.64,44.28 -166.44,44.20"/>
        <lane id="-E27_2" index="2" disallow="pedestrian" speed="13.89" length="10.00" width="2.70" shape="-169.57,46.98 -166.37,46.90"/>
        <lane id="-E27_3" index="3" disallow="pedestrian" speed="13.89" length="10.00" width="2.70" shape="-169.51,49.68 -166.30,49.60"/>
    </edge>
    <edge id="-E28" from="J23" to="J22" priority="-1" length="50.00">
        <lane id="-E28_0" index="0" allow="pedestrian" speed="13.89" length="50.00" width="2.00" shape="-207.66,42.85 -177.69,42.13"/>
        <lane id="-E28_1" index="1" disallow="pedestrian" speed="13.89" length="50.00" width="2.70" shape="-207.60,45.20 -177.63,44.48"/>
        <lane id="-E28_2" index="2" disallow="pedestrian" speed="13.89" length="50.00" width="2.70" shape="-207.54,47.89 -177.57,47.18"/>
        <lane id="-E28_3" index="3" disallow="pedestrian" speed="13.89" length="50.00" width="2.70" shape="-207.48,50.59 -177.50,49.88"/>
    </edge>
    <edge id="-E4" from="J5" to="J0" priority="-1" length="10.00">
        <lane id="-E4_0" index="0" speed="13.89" length="10.00" width="2.70" shape="-4.84,45.42 14.44,45.30"/>
        <lane id="-E4_1" index="1" speed="13.89" length="10.00" width="2.70" shape="-4.82,48.12 14.45,48.00"/>
        <lane id="-E4_2" index="2" speed="13.89" length="10.00" width="2.70" shape="-4.81,50.82 14.47,50.70"/>
    </edge>
    <edge id="-E7" from="J7" to="J5" priority="-1" length="50.00">
        <lane id="-E7_0" index="0" speed="13.89" length="50.00" width="2.70" shape="-41.52,45.19 -5.04,45.42"/>
        <lane id="-E7_1" index="1" speed="13.89" length="50.00" width="2.70" shape="-41.54,47.89 -5.05,48.12"/>
        <lane id="-E7_2" index="2" speed="13.89" length="50.00" width="2.70" shape="-41.55,50.59 -5.07,50.82"/>
    </edge>
    <edge id="-E8" from="J8" to="J7" priority="-1" length="135.00">
        <lane id="-E8_0" index="0" speed="13.89" length="135.00" width="2.70" shape="-156.99,44.04 -41.79,45.19"/>
        <lane id="-E8_1" index="1" speed="13.89" length="135.00" width="2.70" shape="-157.01,46.74 -41.82,47.89"/>
        <lane id="-E8_2" index="2" speed="13.89" length="135.00" width="2.70" shape="-157.04,49.44 -41.84,50.59"/>
    </edge>
    <edge id="E0" from="J0" to="J1" priority="-1" length="60.00">
        <lane id="E0_0" index="0" speed="13.89" length="60.00" width="2.70" shape="14.77,45.30 64.89,45.21"/>
        <lane id="E0_1" index="1" speed="13.89" length="60.00" width="2.70" shape="14.77,48.00 64.89,47.91"/>
        <lane id="E0_2" index="2" speed="13.89" length="60.00" width="2.70" shape="14.78,50.70 64.90,50.61"/>
    </edge>
    <edge id="E1" from="J1" to="J2" priority="-1" length="60.00">
        <lane id="E1_0" index="0" allow="pedestrian" speed="13.89" length="60.00" width="2.00" shape="84.08,40.13 139.06,40.06"/>
        <lane id="E1_1" index="1" disallow="pedestrian" speed="13.89" length="60.00" width="2.70" shape="84.09,42.48 139.06,42.41"/>
        <lane id="E1_2" index="2" disallow="pedestrian" speed="13.89" length="60.00" width="2.70" shape="84.09,45.18 139.06,45.11"/>
        <lane id="E1_3" index="3" disallow="pedestrian" speed="13.89" length="60.00" width="2.70" shape="84.09,47.88 139.06,47.81"/>
        <lane id="E1_4" index="4" disallow="pedestrian" speed="13.89" length="60.00" width="2.70" shape="84.10,50.58 139.07,50.51"/>
    </edge>
    <edge id="E11" from="J3" to="J15" priority="-1" length="10.00">
        <lane id="E11_0" index="0" speed="13.89" length="10.00" width="2.70" shape="-272.21,55.86 -298.81,56.30"/>
        <lane id="E11_1" index="1" speed="13.89" length="10.00" width="2.70" shape="-272.25,53.16 -298.85,53.60"/>
    </edge>
    <edge id="E12" from="J3" to="J6" priority="-1" length="10.00">
        <lane id="E12_0" index="0" speed="13.89" length="10.00" width="2.70" shape="-274.01,65.09 -279.13,67.98"/>
        <lane id="E12_1" index="1" speed="13.89" length="10.00" width="2.70" shape="-275.34,62.74 -280.46,65.63"/>
    </edge>
    <edge id="E13" from="J15" to="J24" priority="-1" length="60.00">
        <lane id="E13_0" index="0" allow="pedestrian" speed="13.89" length="60.00" width="2.00" shape="-328.33,58.90 -367.58,59.32"/>
        <lane id="E13_1" index="1" disallow="pedestrian" speed="13.89" length="60.00" width="2.70" shape="-328.36,56.55 -367.61,56.97"/>
        <lane id="E13_2" index="2" disallow="pedestrian" speed="13.89" length="60.00" width="2.70" shape="-328.38,53.85 -367.64,54.27"/>
    </edge>
    <edge id="E14" from="J26" to="J15" priority="-1" length="60.00">
        <lane id="E14_0" index="0" speed="13.89" length="60.00" width="2.70" shape="-358.36,75.17 -327.62,61.91"/>
        <lane id="E14_1" index="1" speed="13.89" length="60.00" width="2.70" shape="-357.29,77.65 -326.55,64.39"/>
        <lane id="E14_2" index="2" speed="13.89" length="60.00" width="2.70" shape="-356.22,80.13 -325.48,66.87"/>
    </edge>
    <edge id="E2" from="J23" to="J3" priority="-1" length="70.00">
        <lane id="E2_0" index="0" allow="pedestrian" speed="13.89" length="70.00" width="2.00" shape="-208.00,63.75 -264.36,63.34"/>
        <lane id="E2_1" index="1" disallow="pedestrian" speed="13.89" length="70.00" width="2.70" shape="-207.98,61.40 -264.35,60.99"/>
        <lane id="E2_2" index="2" disallow="pedestrian" speed="13.89" length="70.00" width="2.70" shape="-207.96,58.70 -264.33,58.29"/>
        <lane id="E2_3" index="3" disallow="pedestrian" speed="13.89" length="70.00" width="2.70" shape="-207.94,56.00 -264.31,55.59"/>
        <lane id="E2_4" index="4" disallow="pedestrian" speed="13.89" length="70.00" width="2.70" shape="-207.92,53.30 -264.29,52.89"/>
    </edge>
    <edge id="E20" from="J16" to="J1" priority="-1" length="30.00">
        <lane id="E20_0" index="0" allow="pedestrian" speed="13.89" length="30.00" width="2.00" shape="67.69,99.10 67.91,64.06"/>
        <lane id="E20_1" index="1" disallow="pedestrian" speed="13.89" length="30.00" width="2.70" shape="70.04,99.12 70.26,64.07"/>
        <lane id="E20_2" index="2" disallow="pedestrian" speed="13.89" length="30.00" width="2.70" shape="72.74,99.13 72.96,64.09"/>
    </edge>
    <edge id="E21" from="J17" to="J1" priority="-1">
        <lane id="E21_0" index="0" speed="50.00" length="0.20" width="2.70" shape="80.71,38.44 80.72,38.64"/>
        <lane id="E21_1" index="1" speed="50.00" length="0.20" width="2.70" shape="78.01,38.53 78.02,38.73"/>
        <lane id="E21_2" index="2" speed="50.00" length="0.20" width="2.70" shape="75.31,38.61 75.32,38.81"/>
    </edge>
    <edge id="E22" from="J18" to="J17" priority="-1" length="60.00">
        <lane id="E22_0" index="0" allow="pedestrian" speed="13.89" length="60.00" width="2.00" shape="19.03,26.64 70.14,27.15"/>
        <lane id="E22_1" index="1" disallow="pedestrian" speed="13.89" length="60.00" width="2.70" shape="19.01,28.99 70.12,29.50"/>
        <lane id="E22_2" index="2" disallow="pedestrian" speed="13.89" length="60.00" width="2.70" shape="18.98,31.69 70.09,32.20"/>
        <lane id="E22_3" index="3" disallow="pedestrian" speed="13.89" length="60.00" width="2.70" shape="18.95,34.39 70.07,34.90"/>
    </edge>
    <edge id="E23" from="J19" to="J18" priority="-1" length="10.00">
        <lane id="E23_0" index="0" allow="pedestrian" speed="13.89" length="10.00" width="2.00" shape="-5.14,29.30 10.99,29.30"/>
        <lane id="E23_1" index="1" disallow="pedestrian" speed="13.89" length="10.00" width="2.70" shape="-5.14,31.65 10.99,31.65"/>
        <lane id="E23_2" index="2" disallow="pedestrian" speed="13.89" length="10.00" width="2.70" shape="-5.14,34.35 10.99,34.35"/>
    </edge>
    <edge id="E24" from="J20" to="J19" priority="-1" length="50.00">
        <lane id="E24_0" index="0" allow="pedestrian" speed="13.89" length="50.00" width="2.00" shape="-42.65,29.20 -5.43,29.30"/>
        <lane id="E24_1" index="1" disallow="pedestrian" speed="13.89" length="50.00" width="2.70" shape="-42.65,31.55 -5.43,31.65"/>
        <lane id="E24_2" index="2" disallow="pedestrian" speed="13.89" length="50.00" width="2.70" shape="-42.66,34.25 -5.44,34.35"/>
    </edge>
    <edge id="E25" from="J21" to="J20" priority="-1" length="135.00">
        <lane id="E25_0" index="0" allow="pedestrian" speed="13.89" length="135.00" width="2.00" shape="-155.19,28.57 -42.94,29.20"/>
        <lane id="E25_1" index="1" disallow="pedestrian" speed="13.89" length="135.00" width="2.70" shape="-155.21,30.92 -42.95,31.55"/>
        <lane id="E25_2" index="2" disallow="pedestrian" speed="13.89" length="135.00" width="2.70" shape="-155.22,33.62 -42.97,34.25"/>
    </edge>
    <edge id="E26" from="J8" to="J21" priority="-1" length="1.00">
        <lane id="E26_0" index="0" speed="50.00" length="1.00" width="2.70" shape="-163.24,42.98 -163.24,42.78"/>
        <lane id="E26_1" index="1" speed="50.00" length="1.00" width="2.70" shape="-160.54,42.97 -160.54,42.77"/>
    </edge>
    <edge id="E27" from="J8" to="J22" priority="-1" length="10.00">
        <lane id="E27_0" index="0" allow="pedestrian" speed="13.89" length="10.00" width="2.00" shape="-166.04,60.05 -169.24,60.13"/>
        <lane id="E27_1" index="1" disallow="pedestrian" speed="13.89" length="10.00" width="2.70" shape="-166.10,57.70 -169.30,57.78"/>
        <lane id="E27_2" index="2" disallow="pedestrian" speed="13.89" length="10.00" width="2.70" shape="-166.16,55.00 -169.37,55.08"/>