<routes>
            <vType id="PassengerCar" minGap="1.0" maxSpeed="50.00" vClass="passenger" color="yellow" accel="3.0" decel="4.5" sigma="0.5"/>
            <route id="R1" edges="E14 -E11 -E2 -E28 -E27 -E8 -E7 -E4 E0 E1"/>
            <route id="R2" edges="-E13 -E11 -E2 -E28 -E27 -E8 -E7 -E4 E0 E1"/>
            <route id="R3" edges="E14 -E11 -E2 -E28 -E27 E26 E25 E24 E23 E22 E21 E1"/>
            <route id="R4" edges="-E13 -E11 -E2 -E28 -E27 E26 E25 E24 E23 E22 E21 E1"/>
            <route id="R5" edges="-E1 -E0 E4 E7 E8 E27 E28 E2 E12 E9"/>
            <route id="R6" edges="-E1 -E0 E4 E7 E8 E27 E28 E2 E11 E13"/>
            <route id="R7" edges="E14 -E11 -E2 -E28 -E27 E26 E25 E24 E23 E22 E21 -E20"/>
            <route id="R8" edges="-E13 -E11 -E2 -E28 -E27 E26 E25 E24 E23 E22 E21 -E20"/>
            <route id="R9" edges="E20 -E0 E4 E7 E8 E27 E28 E2 E12 E9"/>
            <route id="R10" edges="E20 -E0 E4 E7 E8 E27 E28 E2 E11 E13"/>
            <route id="R11" edges="E14 -E11 -E2 -E28 -E27 E26 E25 E24 E23 E22 E21 -E0 E4 E7 E8 E27 E28 E2 E11 E13"/>
            <route id="R12" edges="-E13 -E11 -E2 -E28 -E27 E26 E25 E24 E23 E22 E21 -E0 E4 E7 E8 E27 E28 E2 E12 E9"/>
    <vehicle id="R5_0" type="PassengerCar" route="R5" depart="44.0" departLane="random" />
    <vehicle id="R11_1" type="PassengerCar" route="R11" depart="44.0" departLane="random" />
    <vehicle id="R5_2" type="PassengerCar" route="R5" depart="52.0" departLane="random" />
    <vehicle id="R5_3" type="PassengerCar" route="R5" depart="58.0" departLane="random" />
    <vehicle id="R1_4" type="PassengerCar" route="R1" depart="60.0" departLane="random" />
    <vehicle id="R9_5" type="PassengerCar" route="R9" depart="79.0" departLane="random" />
    <vehicle id="R6_6" type="PassengerCar" route="R6" depart="81.0" departLane="random" />
    <vehicle id="R5_7" type="PassengerCar" route="R5" depart="82.0" departLane="random" />
    <vehicle id="R6_8" type="PassengerCar" route="R6" depart="82.0" departLane="random" />
    <vehicle id="R2_9" type="PassengerCar" route="R2" depart="82.0" departLane="random" />
    <vehicle id="R1_10" type="PassengerCar" route="R1" depart="88.0" departLane="random" />
    <vehicle id="R12_11" type="PassengerCar" route="R12" depart="95.0" departLane="random" />
    <vehicle id="R3_12" type="PassengerCar" route="R3" depart="97.0" departLane="random" />
    <vehicle id="R1_13" type="PassengerCar" route="R1" depart="97.0" departLane="random" />
    <vehicle id="R2_14" type="PassengerCar" route="R2" depart="113.0" departLane="random" />
    <vehicle id="R1_15" type="PassengerCar" route="R1" depart="123.0" departLane="random" />
    <vehicle id="R6_16" type="PassengerCar" route="R6" depart="124.0" departLane="random" />
    <vehicle id="R5_17" type="PassengerCar" route="R5" depart="125.0" departLane="random" />
    <vehicle id="R1_18" type="PassengerCar" route="R1" depart="126.0" departLane="random" />
    <vehicle id="R1_19" type="PassengerCar" route="R1" depart="126.0" departLane="random" />
    <vehicle id="R12_20" type="PassengerCar" route="R12" depart="129.0" departLane="random" />
    <vehicle id="R10_21" type="PassengerCar" route="R10" depart="135.0" departLane="random" />
    <vehicle id="R6_22" type="PassengerCar" route="R6" depart="135.0" departLane="random" />
    <vehicle id="R5_23" type="PassengerCar" route="R5" depart="138.0" departLane="random" />
    <vehicle id="R2_24" type="PassengerCar" route="R2" depart="141.0" departLane="random" />
    <vehicle id="R5_25" type="PassengerCar" route="R5" depart="141.0" departLane="random" />
    <vehicle id="R6_26" type="PassengerCar" route="R6" depart="143.0" departLane="random" />
    <vehicle id="R6_27" type="PassengerCar" route="R6" depart="146.0" departLane="random" />
    <vehicle id="R5_28" type="PassengerCar" route="R5" depart="146.0" departLane="random" />
    <vehicle id="R6_29" type="PassengerCar" route="R6" depart="148.0" departLane="random" />
    <vehicle id="R6_30" type="PassengerCar" route="R6" depart="158.0" departLane="random" />
    <vehicle id="R1_31" type="PassengerCar" route="R1" depart="162.0" departLane="random" />
    <vehicle id="R1_32" type="PassengerCar" route="R1" depart="162.0" departLane="random" />
    <vehicle id="R2_33" type="PassengerCar" route="R2" depart="165.0" departLane="random" />
    <vehicle id="R6_34" type="PassengerCar" route="R6" depart="166.0" departLane="random" />
    <vehicle id="R1_35" type="PassengerCar" route="R1" depart="166.0" departLane="random" />
    <vehicle id="R1_36" type="PassengerCar" route="R1" depart="177.0" departLane="random" />
    <vehicle id="R2_37" type="PassengerCar" route="R2" depart="178.0" departLane="random" />
    <vehicle id="R2_38" type="PassengerCar" route="R2" depart="180.0" departLane="random" />
    <vehicle id="R5_39" type="PassengerCar" route="R5" depart="180.0" departLane="random" />
    <vehicle id="R1_40" type="PassengerCar" route="R1" depart="182.0" departLane="random" />
    <vehicle id="R6_41" type="PassengerCar" route="R6" depart="185.0" departLane="random" />
    <vehicle id="R1_42" type="PassengerCar" route="R1" depart="186.0" departLane="random" />
    <vehicle id="R6_43" type="PassengerCar" route="R6" depart="188.0" departLane="random" />
    <vehicle id="R1_44" type="PassengerCar" route="R1" depart="193.0" departLane="random" />
    <vehicle id="R6_45" type="PassengerCar" route="R6" depart="193.0" departLane="random" />
    <vehicle id="R2_46" type="PassengerCar" route="R2" depart="195.0" departLane="random" />
    <vehicle id="R6_47" type="PassengerCar" route="R6" depart="196.0" departLane="random" />
    <vehicle id="R3_48" type="PassengerCar" route="R3" depart="198.0" departLane="random" />
    <vehicle id="R1_49" type="PassengerCar" route="R1" depart="201.0" departLane="random" />
    <vehicle id="R5_50" type="PassengerCar" route="R5" depart="202.0" departLane="random" />
    <vehicle id="R5_51" type="PassengerCar" route="R5" depart="203.0" departLane="random" />
    <vehicle id="R6_52" type="PassengerCar" route="R6" depart="206.0" departLane="random" />
    <vehicle id="R4_53" type="PassengerCar" route="R4" depart="207.0" departLane="random" />
    <vehicle id="R6_54" type="PassengerCar" route="R6" depart="209.0" departLane="random" />
    <vehicle id="R6_55" type="PassengerCar" route="R6" depart="212.0" departLane="random" />
    <vehicle id="R2_56" type="PassengerCar" route="R2" depart="212.0" departLane="random" />
    <vehicle id="R6_57" type="PassengerCar" route="R6" depart="214.0" departLane="random" />
    <vehicle id="R3_58" type="PassengerCar" route="R3" depart="215.0" departLane="random" />
    <vehicle id="R1_59" type="PassengerCar" route="R1" depart="220.0" departLane="random" />
    <vehicle id="R1_60" type="PassengerCar" route="R1" depart="226.0" departLane="random" />
    <vehicle id="R2_61" type="PassengerCar" route="R2" depart="227.0" departLane="random" />
    <vehicle id="R1_62" type="PassengerCar" route="R1" depart="228.0" departLane="random" />
    <vehicle id="R2_63" type="PassengerCar" route="R2" depart="228.0" departLane="random" />
    <vehicle id="R6_64" type="PassengerCar" route="R6" depart="229.0" departLane="random" />
    <vehicle id="R1_65" type="PassengerCar" route="R1" depart="229.0" departLane="random" />
    <vehicle id="R1_66" type="PassengerCar" route="R1" depart="234.0" departLane="random" />
    <vehicle id="R5_67" type="PassengerCar" route="R5" depart="235.0" departLane="random" />
    <vehicle id="R7_68" type="PassengerCar" route="R7" depart="235.0" departLane="random" />
    <vehicle id="R5_69" type="PassengerCar" route="R5" depart="236.0" departLane="random" />
    <vehicle id="R1_70" type="PassengerCar" route="R1" depart="237.0" departLane="random" />
    <vehicle id="R2_71" type="PassengerCar" route="R2" depart="238.0" departLane="random" />
    <vehicle id="R5_72" type="PassengerCar" route="R5" depart="238.0" departLane="random" />
    <vehicle id="R6_73" type="PassengerCar" route="R6" depart="243.0" departLane="random" />
    <vehicle id="R6_74" type="PassengerCar" route="R6" depart="243.0" departLane="random" />
    <vehicle id="R2_75" type="PassengerCar" route="R2" depart="245.0" departLane="random" />
    <vehicle id="R5_76" type="PassengerCar" route="R5" depart="245.0" departLane="random" />
    <vehicle id="R1_77" type="PassengerCar" route="R1" depart="247.0" departLane="random" />
    <vehicle id="R6_78" type="PassengerCar" route="R6" depart="249.0" departLane="random" />
    <vehicle id="R1_79" type="PassengerCar" route="R1" depart="250.0" departLane="random" />
    <vehicle id="R1_80" type="PassengerCar" route="R1" depart="251.0" departLane="random" />
    <vehicle id="R5_81" type="PassengerCar" route="R5" depart="254.0" departLane="random" />
    <vehicle id="R5_82" type="PassengerCar" route="R5" depart="255.0" departLane="random" />
    <vehicle id="R1_83" type="PassengerCar" route="R1" depart="255.0" departLane="random" />
    <vehicle id="R9_84" type="PassengerCar" route="R9" depart="257.0" departLane="random" />
    <vehicle id="R1_85" type="PassengerCar" route="R1" depart="258.0" departLane="random" />
    <vehicle id="R6_86" type="PassengerCar" route="R6" depart="262.0" departLane="random" />
    <vehicle id="R6_87" type="PassengerCar" route="R6" depart="262.0" departLane="random" />
    <vehicle id="R5_88" type="PassengerCar" route="R5" depart="262.0" departLane="random" />
    <vehicle id="R6_89" type="PassengerCar" route="R6" depart="262.0" departLane="random" />
    <vehicle id="R1_90" type="PassengerCar" route="R1" depart="265.0" departLane="random" />
    <vehicle id="R1_91" type="PassengerCar" route="R1" depart="267.0" departLane="random" />
    <vehicle id="R1_92" type="PassengerCar" route="R1" depart="268.0" departLane="random" />
    <vehicle id="R1_93" type="PassengerCar" route="R1" depart="268.0" departLane="random" />
    <vehicle id="R4_94" type="PassengerCar" route="R4" depart="269.0" departLane="random" />
    <vehicle id="R5_95" type="PassengerCar" route="R5" depart="271.0" departLane="random" />
    <vehicle id="R11_96" type="PassengerCar" route="R11" depart="272.0" departLane="random" />
    <vehicle id="R2_97" type="PassengerCar" route="R2" depart="274.0" departLane="random" />
    <vehicle id="R6_98" type="PassengerCar" route="R6" depart="274.0" departLane="random" />
    <vehicle id="R2_99" type="PassengerCar" route="R2" depart="275.0" departLane="random" />
    <vehicle id="R5_100" type="PassengerCar" route="R5" depart="278.0" departLane="random" />
    <vehicle id="R6_101" type="PassengerCar" route="R6" depart="278.0" departLane="random" />
    <vehicle id="R4_102" type="PassengerCar" route="R4" depart="278.0" departLane="random" />
    <vehicle id="R6_103" type="PassengerCar" route="R6" depart="280.0" departLane="random" />
    <vehicle id="R5_104" type="PassengerCar" route="R5" depart="280.0" departLane="random" />
    <vehicle id="R4_105" type="PassengerCar" route="R4" depart="280.0" departLane="random" />
    <vehicle id="R5_106" type="PassengerCar" route="R5" depart="281.0" departLane="random" />
    <vehicle id="R6_107" type="PassengerCar" route="R6" depart="281.0" departLane="random" />
    <vehicle id="R6_108" type="PassengerCar" route="R6" depart="281.0" departLane="random" />
    <vehicle id="R6_109" type="PassengerCar" route="R6" depart="283.0" departLane="random" />
    <vehicle id="R1_110" type="PassengerCar" route="R1" depart="285.0" departLane="random" />
    <vehicle id="R2_111" type="PassengerCar" route="R2" depart="287.0" departLane="random" />
    <vehicle id="R1_112" type="PassengerCar" route="R1" depart="288.0" departLane="random" />
    <vehicle id="R5_113" type="PassengerCar" route="R5" depart="289.0" departLane="random" />
    <vehicle id="R1_114" type="PassengerCar" route="R1" depart="291.0" departLane="random" />
    <vehicle id="R2_115" type="PassengerCar" route="R2" depart="291.0" departLane="random" />
    <vehicle id="R5_116" type="PassengerCar" route="R5" depart="292.0" departLane="random" />
    <vehicle id="R2_117" type="PassengerCar" route="R2" depart="292.0" departLane="random" />
    <vehicle id="R10_118" type="PassengerCar" route="R10" depart="294.0" departLane="random" />
    <vehicle id="R12_119" type="PassengerCar" route="R12" depart="294.0" departLane="random" />
    <vehicle id="R5_120" type="PassengerCar" route="R5" depart="296.0" departLane="random" />
    <vehicle id="R1_121" type="PassengerCar" route="R1" depart="296.0" departLane="random" />
    <vehicle id="R6_122" type="PassengerCar" route="R6" depart="296.0" departLane="random" />
    <vehicle id="R5_123" type="PassengerCar" route="R5" depart="297.0" departLane="random" />
    <vehicle id="R5_124" type="PassengerCar" route="R5" depart="299.0" departLane="random" />
    <vehicle id="R1_125" type="PassengerCar" route="R1" depart="300.0" departLane="random" />
    <vehicle id="R12_126" type="PassengerCar" route="R12" depart="301.0" departLane="random" />
    <vehicle id="R6_127" type="PassengerCar" route="R6" depart="302.0" departLane="random" />
    <vehicle id="R5_128" type="PassengerCar" route="R5" depart="303.0" departLane="random" />
    <vehicle id="R5_129" type="PassengerCar" route="R5" depart="303.0" departLane="random" />
    <vehicle id="R6_130" type="PassengerCar" route="R6" depart="304.0" departLane="random" />
    <vehicle id="R12_131" type="PassengerCar" route="R12" depart="305.0" departLane="random" />
    <vehicle id="R2_132" type="PassengerCar" route="R2" depart="305.0" departLane="random" />
    <vehicle id="R1_133" type="PassengerCar" route="R1" depart="307.0" departLane="random" />
    <vehicle id="R2_134" type="PassengerCar" route="R2" depart="308.0" departLane="random" />
    <vehicle id="R2_135" type="PassengerCar" route="R2" depart="310.0" departLane="random" />
    <vehicle id="R2_136" type="PassengerCar" route="R2" depart="310.0" departLane="random" />
    <vehicle id="R4_137" type="PassengerCar" route="R4" depart="312.0" departLane="random" />
    <vehicle id="R2_138" type="PassengerCar" route="R2" depart="314.0" departLane="random" />
    <vehicle id="R6_139" type="PassengerCar" route="R6" depart="314.0" departLane="random" />
    <vehicle id="R6_140" type="PassengerCar" route="R6" depart="314.0" departLane="random" />
    <vehicle id="R1_141" type="PassengerCar" route="R1" depart="315.0" departLane="random" />
    <vehicle id="R2_142" type="PassengerCar" route="R2" depart="315.0" departLane="random" />
    <vehicle id="R2_143" type="PassengerCar" route="R2" depart="315.0" departLane="random" />
    <vehicle id="R6_144" type="PassengerCar" route="R6" depart="316.0" departLane="random" />
    <vehicle id="R3_145" type="PassengerCar" route="R3" depart="321.0" departLane="random" />
    <vehicle id="R2_146" type="PassengerCar" route="R2" depart="322.0" departLane="random" />
    <vehicle id="R1_147" type="PassengerCar" route="R1" depart="323.0" departLane="random" />
    <vehicle id="R6_148" type="PassengerCar" route="R6" depart="326.0" departLane="random" />
    <vehicle id="R5_149" type="PassengerCar" route="R5" depart="327.0" departLane="random" />
    <vehicle id="R1_150" type="PassengerCar" route="R1" depart="329.0" departLane="random" />
    <vehicle id="R1_151" type="PassengerCar" route="R1" depart="329.0" departLane="random" />
    <vehicle id="R5_152" type="PassengerCar" route="R5" depart="329.0" departLane="random" />
    <vehicle id="R1_153" type="PassengerCar" route="R1" depart="331.0" departLane="random" />
    <vehicle id="R6_154" type="PassengerCar" route="R6" depart="331.0" departLane="random" />
    <vehicle id="R5_155" type="PassengerCar" route="R5" depart="333.0" departLane="random" />
    <vehicle id="R1_156" type="PassengerCar" route="R1" depart="334.0" departLane="random" />
    <vehicle id="R3_157" type="PassengerCar" route="R3" depart="335.0" departLane="random" />
    <vehicle id="R6_158" type="PassengerCar" route="R6" depart="336.0" departLane="random" />
    <vehicle id="R1_159" type="PassengerCar" route="R1" depart="336.0" departLane="random" />
    <vehicle id="R4_160" type="PassengerCar" route="R4" depart="337.0" departLane="random" />
    <vehicle id="R6_161" type="PassengerCar" route="R6" depart="337.0" departLane="random" />
    <vehicle id="R6_162" type="PassengerCar" route="R6" depart="338.0" departLane="random" />
    <vehicle id="R12_163" type="PassengerCar" route="R12" depart="338.0" departLane="random" />
    <vehicle id="R2_164" type="PassengerCar" route="R2" depart="339.0" departLane="random" />
    <vehicle id="R2_165" type="PassengerCar" route="R2" depart="339.0" departLane="random" />
    <vehicle id="R1_166" type="PassengerCar" route="R1" depart="339.0" departLane="random" />
    <vehicle id="R1_167" type="PassengerCar" route="R1" depart="339.0" departLane="random" />
    <vehicle id="R6_168" type="PassengerCar" route="R6" depart="340.0" departLane="random" />
    <vehicle id="R5_169" type="PassengerCar" route="R5" depart="340.0" departLane="random" />
    <vehicle id="R4_170" type="PassengerCar" route="R4" depart="342.0" departLane="random" />
    <vehicle id="R6_171" type="PassengerCar" route="R6" depart="343.0" departLane="random" />
    <vehicle id="R6_172" type="PassengerCar" route="R6" depart="346.0" departLane="random" />
    <vehicle id="R6_173" type="PassengerCar" route="R6" depart="348.0" departLane="random" />
    <vehicle id="R5_174" type="PassengerCar" route="R5" depart="348.0" departLane="random" />
    <vehicle id="R5_175" type="PassengerCar" route="R5" depart="349.0" departLane="random" />
    <vehicle id="R6_176" type="PassengerCar" route="R6" depart="349.0" departLane="random" />
    <vehicle id="R5_177" type="PassengerCar" route="R5" depart="349.0" departLane="random" />
    <vehicle id="R5_178" type="PassengerCar" route="R5" depart="349.0" departLane="random" />
    <vehicle id="R6_179" type="PassengerCar" route="R6" depart="349.0" departLane="random" />
    <vehicle id="R2_180" type="PassengerCar" route="R2" depart="351.0" departLane="random" />
    <vehicle id="R5_181" type="PassengerCar" route="R5" depart="351.0" departLane="random" />
    <vehicle id="R2_182" type="PassengerCar" route="R2" depart="354.0" departLane="random" />
    <vehicle id="R5_183" type="PassengerCar" route="R5" depart="355.0" departLane="random" />
    <vehicle id="R6_184" type="PassengerCar" route="R6" depart="358.0" departLane="random" />
    <vehicle id="R5_185" type="PassengerCar" route="R5" depart="360.0" departLane="random" />
    <vehicle id="R1_186" type="PassengerCar" route="R1" depart="360.0" departLane="random" />
    <vehicle id="R5_187" type="PassengerCar" route="R5" depart="361.0" departLane="random" />
    <vehicle id="R6_188" type="PassengerCar" route="R6" depart="363.0" departLane="random" />
    <vehicle id="R5_189" type="PassengerCar" route="R5" depart="365.0" departLane="random" />
    <vehicle id="R5_190" type="PassengerCar" route="R5" depart="365.0" departLane="random" />
    <vehicle id="R1_191" type="PassengerCar" route="R1" depart="367.0" departLane="random" />
    <vehicle id="R6_192" type="PassengerCar" route="R6" depart="367.0" departLane="random" />
    <vehicle id="R6_193" type="PassengerCar" route="R6" depart="370.0" departLane="random" />
    <vehicle id="R6_194" type="PassengerCar" route="R6" depart="370.0" departLane="random" />
    <vehicle id="R2_195" type="PassengerCar" route="R2" depart="371.0" departLane="random" />
    <vehicle id="R1_196" type="PassengerCar" route="R1" depart="373.0" departLane="random" />
    <vehicle id="R1_197" type="PassengerCar" route="R1" depart="374.0" departLane="random" />
    <vehicle id="R6_198" type="PassengerCar" route="R6" depart="374.0" departLane="random" />
    <vehicle id="R1_199" type="PassengerCar" route="R1" depart="374.0" departLane="random" />
    <vehicle id="R6_200" type="PassengerCar" route="R6" depart="374.0" departLane="random" />
    <vehicle id="R1_201" type="PassengerCar" route="R1" depart="374.0" departLane="random" />
    <vehicle id="R2_202" type="PassengerCar" route="R2" depart="374.0" departLane="random" />
    <vehicle id="R2_203" type="PassengerCar" route="R2" depart="377.0" departLane="random" />
    <vehicle id="R2_204" type="PassengerCar" route="R2" depart="378.0" departLane="random" />
    <vehicle id="R5_205" type="PassengerCar" route="R5" depart="378.0" departLane="random" />
    <vehicle id="R1_206" type="PassengerCar" route="R1" depart="379.0" departLane="random" />
    <vehicle id="R1_207" type="PassengerCar" route="R1" depart="379.0" departLane="random" />
    <vehicle id="R12_208" type="PassengerCar" route="R12" depart="380.0" departLane="random" />
    <vehicle id="R4_209" type="PassengerCar" route="R4" depart="380.0" departLane="random" />
    <vehicle id="R5_210" type="PassengerCar" route="R5" depart="381.0" departLane="random" />
    <vehicle id="R2_211" type="PassengerCar" route="R2" depart="382.0" departLane="random" />
    <vehicle id="R1_212" type="PassengerCar" route="R1" depart="385.0" departLane="random" />
    <vehicle id="R5_213" type="PassengerCar" route="R5" depart="385.0" departLane="random" />
    <vehicle id="R2_214" type="PassengerCar" route="R2" depart="386.0" departLane="random" />
    <vehicle id="R5_215" type="PassengerCar" route="R5" depart="387.0" departLane="random" />
    <vehicle id="R2_216" type="PassengerCar" route="R2" depart="389.0" departLane="random" />
    <vehicle id="R2_217" type="PassengerCar" route="R2" depart="389.0" departLane="random" />
    <vehicle id="R2_218" type="PassengerCar" route="R2" depart="390.0" departLane="random" />
    <vehicle id="R6_219" type="PassengerCar" route="R6" depart="394.0" departLane="random" />
    <vehicle id="R2_220" type="PassengerCar" route="R2" depart="394.0" departLane="random" />
    <vehicle id="R1_221" type="PassengerCar" route="R1" depart="395.0" departLane="random" />
    <vehicle id="R1_222" type="PassengerCar" route="R1" depart="395.0" departLane="random" />
    <vehicle id="R5_223" type="PassengerCar" route="R5" depart="396.0" departLane="random" />
    <vehicle id="R5_224" type="PassengerCar" route="R5" depart="396.0" departLane="random" />
    <vehicle id="R2_225" type="PassengerCar" route="R2" depart="396.0" departLane="random" />
    <vehicle id="R6_226" type="PassengerCar" route="R6" depart="396.0" departLane="random" />
    <vehicle id="R1_227" type="PassengerCar" route="R1" depart="397.0" departLane="random" />
    <vehicle id="R6_228" type="PassengerCar" route="R6" depart="398.0" departLane="random" />
    <vehicle id="R1_229" type="PassengerCar" route="R1" depart="399.0" departLane="random" />
    <vehicle id="R4_230" type="PassengerCar" route="R4" depart="400.0" departLane="random" />
    <vehicle id="R1_231" type="PassengerCar" route="R1" depart="401.0" departLane="random" />
    <vehicle id="R2_232" type="PassengerCar" route="R2" depart="403.0" departLane="random" />
    <vehicle id="R6_233" type="PassengerCar" route="R6" depart="404.0" departLane="random" />
    <vehicle id="R5_234" type="PassengerCar" route="R5" depart="405.0" departLane="random" />
    <vehicle id="R2_235" type="PassengerCar" route="R2" depart="406.0" departLane="random" />
    <vehicle id="R6_236" type="PassengerCar" route="R6" depart="408.0" departLane="random" />
    <vehicle id="R5_237" type="PassengerCar" route="R5" depart="408.0" departLane="random" />
    <vehicle id="R1_238" type="PassengerCar" route="R1" depart="409.0" departLane="random" />
    <vehicle id="R10_239" type="PassengerCar" route="R10" depart="409.0" departLane="random" />
    <vehicle id="R6_240" type="PassengerCar" route="R6" depart="412.0" departLane="random" />
    <vehicle id="R5_241" type="PassengerCar" route="R5" depart="414.0" departLane="random" />
    <vehicle id="R5_242" type="PassengerCar" route="R5" depart="415.0" departLane="random" />
    <vehicle id="R3_243" type="PassengerCar" route="R3" depart="415.0" departLane="random" />
    <vehicle id="R2_244" type="PassengerCar" route="R2" depart="415.0" departLane="random" />
    <vehicle id="R6_245" type="PassengerCar" route="R6" depart="416.0" departLane="random" />
    <vehicle id="R2_246" type="PassengerCar" route="R2" depart="417.0" departLane="random" />
    <vehicle id="R1_247" type="PassengerCar" route="R1" depart="420.0" departLane="random" />
    <vehicle id="R6_248" type="PassengerCar" route="R6" depart="420.0" departLane="random" />
    <vehicle id="R6_249" type="PassengerCar" route="R6" depart="420.0" departLane="random" />
    <vehicle id="R1_250" type="PassengerCar" route="R1" depart="420.0" departLane="random" />
    <vehicle id="R2_251" type="PassengerCar" route="R2" depart="420.0" departLane="random" />
    <vehicle id="R5_252" type="PassengerCar" route="R5" depart="421.0" departLane="random" />
    <vehicle id="R1_253" type="PassengerCar" route="R1" depart="421.0" departLane="random" />
    <vehicle id="R1_254" type="PassengerCar" route="R1" depart="422.0" departLane="random" />
    <vehicle id="R2_255" type="PassengerCar" route="R2" depart="422.0" departLane="random" />
    <vehicle id="R3_256" type="PassengerCar" route="R3" depart="423.0" departLane="random" />
    <vehicle id="R2_257" type="PassengerCar" route="R2" depart="423.0" departLane="random" />
    <vehicle id="R1_258" type="PassengerCar" route="R1" depart="423.0" departLane="random" />
    <vehicle id="R5_259" type="PassengerCar" route="R5" depart="424.0" departLane="random" />
    <vehicle id="R3_260" type="PassengerCar" route="R3" depart="426.0" departLane="random" />
    <vehicle id="R2_261" type="PassengerCar" route="R2" depart="427.0" departLane="random" />
    <vehicle id="R5_262" type="PassengerCar" route="R5" depart="428.0" departLane="random" />
    <vehicle id="R1_263" type="PassengerCar" route="R1" depart="429.0" departLane="random" />
    <vehicle id="R1_264" type="PassengerCar" route="R1" depart="429.0" departLane="random" />
    <vehicle id="R1_265" type="PassengerCar" route="R1" depart="430.0" departLane="random" />
    <vehicle id="R12_266" type="PassengerCar" route="R12" depart="430.0" departLane="random" />
    <vehicle id="R2_267" type="PassengerCar" route="R2" depart="430.0" departLane="random" />
    <vehicle id="R2_268" type="PassengerCar" route="R2" depart="431.0" departLane="random" />
    <vehicle id="R6_269" type="PassengerCar" route="R6" depart="432.0" departLane="random" />
    <vehicle id="R5_270" type="PassengerCar" route="R5" depart="433.0" departLane="random" />
    <vehicle id="R6_271" type="PassengerCar" route="R6" depart="435.0" departLane="random" />
    <vehicle id="R2_272" type="PassengerCar" route="R2" depart="435.0" departLane="random" />
    <vehicle id="R1_273" type="PassengerCar" route="R1" depart="436.0" departLane="random" />
    <vehicle id="R5_274" type="PassengerCar" route="R5" depart="436.0" departLane="random" />
    <vehicle id="R1_275" type="PassengerCar" route="R1" depart="438.0" departLane="random" />
    <vehicle id="R6_276" type="PassengerCar" route="R6" depart="441.0" departLane="random" />
    <vehicle id="R10_277" type="PassengerCar" route="R10" depart="442.0" departLane="random" />
    <vehicle id="R2_278" type="PassengerCar" route="R2" depart="442.0" departLane="random" />
    <vehicle id="R6_279" type="PassengerCar" route="R6" depart="442.0" departLane="random" />
    <vehicle id="R2_280" type="PassengerCar" route="R2" depart="442.0" departLane="random" />
    <vehicle id="R5_281" type="PassengerCar" route="R5" depart="443.0" departLane="random" />
    <vehicle id="R2_282" type="PassengerCar" route="R2" depart="443.0" departLane="random" />
    <vehicle id="R1_283" type="PassengerCar" route="R1" depart="446.0" departLane="random" />
    <vehicle id="R2_284" type="PassengerCar" route="R2" depart="446.0" departLane="random" />
    <vehicle id="R12_285" type="PassengerCar" route="R12" depart="447.0" departLane="random" />
    <vehicle id="R2_286" type="PassengerCar" route="R2" depart="447.0" departLane="random" />
    <vehicle id="R6_287" type="PassengerCar" route="R6" depart="448.0" departLane="random" />
    <vehicle id="R5_288" type="PassengerCar" route="R5" depart="448.0" departLane="random" />
    <vehicle id="R6_289" type="PassengerCar" route="R6" depart="448.0" departLane="random" />
    <vehicle id="R2_290" type="PassengerCar" route="R2" depart="450.0" departLane="random" />
    <vehicle id="R2_291" type="PassengerCar" route="R2" depart="450.0" departLane="random" />
    <vehicle id="R1_292" type="PassengerCar" route="R1" depart="451.0" departLane="random" />
    <vehicle id="R11_293" type="PassengerCar" route="R11" depart="452.0" departLane="random" />
    <vehicle id="R2_294" type="PassengerCar" route="R2" depart="453.0" departLane="random" />
    <vehicle id="R6_295" type="PassengerCar" route="R6" depart="455.0" departLane="random" />
    <vehicle id="R6_296" type="PassengerCar" route="R6" depart="457.0" departLane="random" />
    <vehicle id="R5_297" type="PassengerCar" route="R5" depart="457.0" departLane="random" />
    <vehicle id="R6_298" type="PassengerCar" route="R6" depart="457.0" departLane="random" />
    <vehicle id="R12_299" type="PassengerCar" route="R12" depart="457.0" departLane="random" />
    <vehicle id="R5_300" type="PassengerCar" route="R5" depart="457.0" departLane="random" />
    <vehicle id="R1_301" type="PassengerCar" route="R1" depart="457.0" departLane="random" />
    <vehicle id="R6_302" type="PassengerCar" route="R6" depart="459.0" departLane="random" />
    <vehicle id="R1_303" type="PassengerCar" route="R1" depart="460.0" departLane="random" />
    <vehicle id="R5_304" type="PassengerCar" route="R5" depart="462.0" departLane="random" />
    <vehicle id="R1_305" type="PassengerCar" route="R1" depart="462.0" departLane="random" />
    <vehicle id="R6_306" type="PassengerCar" route="R6" depart="463.0" departLane="random" />